  
       XFOIL         Version 6.96
  
 Calculated polar for: STEADY FLOW TEST DATA                           
  
 1 1 Reynolds number fixed          Mach number fixed         
  
 xtrf =   1.000 (top)        1.000 (bottom)  
 Mach =   0.000     Re =    10.000 e 6     Ncrit =   9.000
  
   alpha    CL        CD       CDp       CM     Top_Xtr  Bot_Xtr
  ------ -------- --------- --------- -------- -------- --------
 -10.000  -1.0899   0.01293   0.00618  -0.0315   0.5009   0.0353
  -9.500  -1.0407   0.01255   0.00577  -0.0290   0.4850   0.0364
  -9.000  -0.9897   0.01225   0.00542  -0.0270   0.4697   0.0365
  -8.500  -0.9402   0.01185   0.00503  -0.0243   0.4628   0.0391
  -8.000  -0.8905   0.01152   0.00468  -0.0216   0.4485   0.0418
  -7.500  -0.8410   0.01117   0.00434  -0.0187   0.4405   0.0450
  -7.000  -0.8168   0.01022   0.00357  -0.0076   0.4295   0.0774
  -6.500  -0.7705   0.01006   0.00341  -0.0033   0.4182   0.0827
  -6.000  -0.7176   0.01000   0.00329  -0.0011   0.3966   0.0841
  -5.500  -0.6703   0.01021   0.00321   0.0027   0.3079   0.0876
  -5.000  -0.6105   0.01017   0.00310   0.0025   0.2830   0.0894
  -4.500  -0.5469   0.01009   0.00299   0.0011   0.2724   0.0905
  -4.000  -0.4832   0.01000   0.00288  -0.0003   0.2645   0.0930
  -3.500  -0.4181   0.00989   0.00278  -0.0022   0.2581   0.0947
  -3.000  -0.3528   0.00984   0.00270  -0.0041   0.2487   0.0959
  -2.500  -0.2863   0.00976   0.00262  -0.0064   0.2439   0.0981
  -2.000  -0.2213   0.00971   0.00255  -0.0083   0.2328   0.1015
  -1.500  -0.1620   0.00994   0.00259  -0.0082   0.1864   0.1033
  -1.000  -0.1013   0.01006   0.00262  -0.0087   0.1557   0.1086
  -0.500  -0.0370   0.01003   0.00259  -0.0103   0.1469   0.1171
   0.000   0.0148   0.00952   0.00236  -0.0079   0.1420   0.1842
   0.500   0.0799   0.00947   0.00235  -0.0097   0.1375   0.1994
   1.000   0.1468   0.00948   0.00238  -0.0122   0.1352   0.2074
   1.500   0.2134   0.00954   0.00243  -0.0145   0.1304   0.2117
   2.000   0.2811   0.00959   0.00248  -0.0172   0.1289   0.2159
   2.500   0.3474   0.00963   0.00253  -0.0195   0.1272   0.2224
   3.000   0.4136   0.00972   0.00261  -0.0217   0.1246   0.2246
   3.500   0.4793   0.00981   0.00269  -0.0238   0.1218   0.2300
   4.000   0.5445   0.00985   0.00277  -0.0257   0.1214   0.2375
   4.500   0.6091   0.00993   0.00286  -0.0273   0.1200   0.2452
   5.000   0.6721   0.01001   0.00297  -0.0286   0.1187   0.2531
   5.500   0.7327   0.01012   0.00309  -0.0290   0.1151   0.2642
   6.000   0.7912   0.01014   0.00319  -0.0287   0.1144   0.2899
   6.500   0.8253   0.00978   0.00318  -0.0202   0.1143   0.3937
   7.000   0.8791   0.00985   0.00334  -0.0184   0.1135   0.4199
   7.500   0.9345   0.00998   0.00354  -0.0171   0.1131   0.4410
   8.000   0.9870   0.01021   0.00379  -0.0150   0.1106   0.4556
   8.500   1.0432   0.01042   0.00402  -0.0142   0.1089   0.4649
   9.000   1.0974   0.01063   0.00427  -0.0128   0.1075   0.4802
   9.500   1.1533   0.01084   0.00452  -0.0121   0.1071   0.4944
  10.000   1.2048   0.01113   0.00484  -0.0101   0.1040   0.5128
  10.500   1.2563   0.01140   0.00518  -0.0083   0.1013   0.5399
  11.000   1.3090   0.01160   0.00554  -0.0070   0.0996   0.5955
  11.500   1.3150   0.01353   0.00730   0.0064   0.0602   0.6415
  12.000   1.4008   0.01418   0.00808  -0.0047   0.0557   0.6967
  12.500   1.5259   0.01489   0.00889  -0.0291   0.0522   0.7481
  13.000   1.6184   0.01501   0.00964  -0.0423   0.0510   0.9467
  14.000   1.7429   0.01686   0.01157  -0.0495   0.0484   0.9880
  14.500   1.7942   0.01790   0.01262  -0.0501   0.0480   0.9909
  15.000   1.8293   0.01918   0.01392  -0.0462   0.0470   0.9929
  15.500   1.8719   0.02075   0.01549  -0.0457   0.0457   0.9953
  16.000   1.9235   0.02252   0.01726  -0.0489   0.0435   0.9962
  16.500   1.9641   0.02482   0.01955  -0.0502   0.0405   0.9968
  17.000   1.9905   0.02836   0.02307  -0.0504   0.0343   0.9975
  17.500   2.0255   0.03137   0.02610  -0.0521   0.0330   0.9980
  18.000   2.0579   0.03499   0.02975  -0.0547   0.0315   0.9985
  18.500   2.0884   0.03902   0.03383  -0.0578   0.0303   0.9989
  19.000   2.1213   0.04366   0.03852  -0.0632   0.0293   0.9995
  19.500   2.1540   0.04838   0.04330  -0.0687   0.0290   0.9999
  20.000   2.1646   0.05360   0.04861  -0.0691   0.0288   1.0000
  20.500   2.1651   0.05957   0.05467  -0.0683   0.0286   1.0000
  21.000   2.1631   0.06576   0.06094  -0.0677   0.0282   1.0000
  21.500   2.1416   0.07402   0.06932  -0.0665   0.0270   1.0000
  22.000   2.1303   0.08131   0.07671  -0.0660   0.0265   1.0000
  22.500   2.1119   0.08954   0.08506  -0.0659   0.0260   1.0000
  23.000   2.0747   0.10031   0.09595  -0.0663   0.0239   1.0000
  23.500   2.0444   0.11076   0.10655  -0.0679   0.0237   1.0000
  24.000   1.9654   0.12757   0.12355  -0.0705   0.0204   1.0000
  24.500   1.8940   0.14413   0.14031  -0.0746   0.0187   1.0000
  25.000   1.8334   0.15974   0.15612  -0.0800   0.0181   1.0000
  25.500   1.7775   0.17519   0.17177  -0.0866   0.0178   1.0000
  26.000   1.7160   0.19191   0.18868  -0.0948   0.0169   1.0000
  26.500   1.6766   0.20567   0.20261  -0.1030   0.0170   1.0000
  27.500   1.5916   0.23528   0.23254  -0.1231   0.0163   1.0000
  28.000   1.5796   0.24516   0.24251  -0.1316   0.0163   1.0000
  28.500   1.5680   0.25512   0.25254  -0.1405   0.0152   1.0000
  29.000   1.5669   0.26321   0.26069  -0.1486   0.0152   1.0000
  29.500   1.5773   0.26915   0.26667  -0.1556   0.0152   1.0000
  30.000   1.5792   0.27651   0.27408  -0.1636   0.0150   1.0000
